LAMMPS (20 Nov 2019)
# Initialization

units		lj
dimension 	2
pair_style	lj/cut 2.5
atom_style	atomic
boundary	p p p

# System definition

read_data	data.min.lammps
  orthogonal box = (-30 -30 -0.5) to (30 30 0.5)
  reading atoms ...
  1150 atoms
  reading velocities ...
  1150 velocities
region		mycylin cylinder z 0 0 15 INF INF side in # new
region		mycylou cylinder z 0 0 15 INF INF side out # new
group		mytype1 type 1 # new
1000 atoms in group mytype1
group		mytype2 type 2 # new
150 atoms in group mytype2
group		incyl region mycylin # new
120 atoms in group incyl
group		oucyl region mycylou # new
1030 atoms in group oucyl
group		type1in intersect mytype1 incyl # new
1 atoms in group type1in
group		type2ou intersect mytype2 oucyl # new
31 atoms in group type2ou
delete_atoms	group type1in # new
Deleted 1 atoms, new total = 1149
delete_atoms	group type2ou # new
Deleted 31 atoms, new total = 1118

# Simulation settings

mass		1 1
mass		2 1
pair_coeff	1 1 1.0 1.0
pair_coeff	2 2 0.5 3.0
neigh_modify	every 1 delay 5 check yes
dump 		mydmp all atom 500 dump.run.lammpstrj
variable	Ntype1in equal count(mytype1,mycylin)
variable	Ntype1ou equal count(mytype1,mycylou)
variable	Ntype2in equal count(mytype2,mycylin)
variable	Ntype2ou equal count(mytype2,mycylou)
fix		myat1 all ave/time 1000 1 1000 v_Ntype1in v_Ntype1ou file population1vstime.dat
fix		myat2 all ave/time 1000 1 1000 v_Ntype2in v_Ntype2ou file population2vstime.dat

# Run

velocity 	all create 1.0 4928459 mom yes rot yes dist gaussian
fix		mynve all nve
fix		mylgv all langevin 1.0 1.0 0.1 1530917 zero yes # changed
fix		myefn all enforce2d
timestep	0.005
thermo		50000
run		500000
  update every 1 steps, delay 5 steps, check yes
Step Temp E_pair E_mol TotEng Press
0            1  0.051724055            0    1.0508296    2.9582501
Averages over the last 6 of 11 rows, steps 250000 to 500000:
Temp E_pair E_mol TotEng Press
0.998661 -0.940131 0 0.057636 0.472361
Loop time of 39.2723 on 4 procs for 500000 steps with 1118 atoms
