LAMMPS (20 Nov 2019)
##################
# Initialisation #
##################

processors	2 2 1

boundary	p p p
units		real
atom_style	full
bond_style	harmonic
angle_style	harmonic
pair_style	lj/cut/tip4p/long 1 2 1 1 0.1546 12.0
kspace_style	pppm/tip4p 1.0e-4

#####################
# System definition #
#####################

read_data	data.02.lammps
  orthogonal box = (-17.85 -17.85 -46.41) to (17.85 17.85 46.41)
  reading atoms ...
  7751 atoms
  reading velocities ...
  7751 velocities
  scanning bonds ...
  scanning angles ...
  reading bonds ...
  2754 bonds
  reading angles ...
  1377 angles

#######################
# Simulation settings #
#######################

include	PARM.lammps
mass 		1 15.9994
mass 		2 1.008
mass		3 28.990
mass		4 35.453
mass		5 12.011
mass		6 12.011

pair_coeff 	1 1 0.185199 3.1589
pair_coeff 	2 2 0.0 0.0
pair_coeff	3 3 0.04690 2.4299
pair_coeff	4 4 0.1500 4.04470
pair_coeff	5 5 0.07 3.55
pair_coeff	6 6 0.07 3.55

bond_coeff 	1 0 0.9572

angle_coeff 	1 0 104.52
group		gH2O type 1 2
4131 atoms in group gH2O
group		gNa type 3
10 atoms in group gNa
group		gCl type 4
10 atoms in group gCl
group		gliquid type 1 2 3 4
4151 atoms in group gliquid
group		gtopwall type 5
1800 atoms in group gtopwall
group		gbotwall type 6
1800 atoms in group gbotwall
dump 		mydmp all atom 1000 dump.03.lammpstrj

#######
# Run #
#######

fix		mysf1 gtopwall setforce 0 0 NULL
fix		mysf2 gbotwall setforce 0 0 NULL
fix		myaf1 gtopwall aveforce NULL NULL 0
fix		myaf2 gbotwall aveforce NULL NULL 0
neigh_modify 	exclude group gtopwall gtopwall
neigh_modify 	exclude group gbotwall gbotwall
fix		mynve all nve
compute	tliq gliquid temp
fix		myber gliquid temp/berendsen 300 300 100
fix_modify	myber temp tliq
fix		myshk gH2O shake 1.0e-4 200 0 b 1 a 1
  find clusters CPU = 0.00100152 secs
fix		myrct all recenter NULL NULL INIT
timestep	1.0
thermo		1000
thermo_modify 	temp tliq
run		5000
PPPM initialization ...
  extracting TIP4P info from pair style
  G vector (1/distance) = 0.21319
  grid = 15 15 32
  stencil order = 5
  estimated absolute RMS force accuracy = 0.0329186
  estimated relative force accuracy = 9.91333e-05
  3d grid and FFT values/proc = 6253 2048
  update every 1 steps, delay 10 steps, check yes
Step Temp E_pair E_mol TotEng Press
0    1.4395357   -7268.4856            0   -7256.5867    -4959.887
Loop time of 96.0188 on 4 procs for 5000 steps with 7751 atoms

write_data	data.03.lammps
PPPM initialization ...
  extracting TIP4P info from pair style
  G vector (1/distance) = 0.21319
  grid = 15 15 32
  stencil order = 5
  estimated absolute RMS force accuracy = 0.0329186
  estimated relative force accuracy = 9.91333e-05
  3d grid and FFT values/proc = 6253 2048
run		5000
PPPM initialization ...
  extracting TIP4P info from pair style
  G vector (1/distance) = 0.21319
  grid = 15 15 32
  stencil order = 5
  estimated absolute RMS force accuracy = 0.0329186
  estimated relative force accuracy = 9.91333e-05
  3d grid and FFT values/proc = 6253 2048
Step Temp E_pair E_mol TotEng Press
5000    305.80145   -14380.498            0   -11852.809   -605.17377
Loop time of 119.35 on 4 procs for 5000 steps with 7751 atoms

write_data	data.03.lammps
PPPM initialization ...
  extracting TIP4P info from pair style
  G vector (1/distance) = 0.21319
  grid = 15 15 32
  stencil order = 5
  estimated absolute RMS force accuracy = 0.0329186
  estimated relative force accuracy = 9.91333e-05
  3d grid and FFT values/proc = 6253 2048
run		5000
PPPM initialization ...
  extracting TIP4P info from pair style
  G vector (1/distance) = 0.21319
  grid = 15 15 32
  stencil order = 5
  estimated absolute RMS force accuracy = 0.0329186
  estimated relative force accuracy = 9.91333e-05
  3d grid and FFT values/proc = 6253 2048
Step Temp E_pair E_mol TotEng Press
10000    305.83431    -15353.04            0   -12825.078    -398.7993
Loop time of 138.224 on 4 procs for 5000 steps with 7751 atoms

write_data	data.03.lammps
PPPM initialization ...
  extracting TIP4P info from pair style
  G vector (1/distance) = 0.21319
  grid = 15 15 32
  stencil order = 5
  estimated absolute RMS force accuracy = 0.0329186
  estimated relative force accuracy = 9.91333e-05
  3d grid and FFT values/proc = 6253 2048
run		5000
PPPM initialization ...
  extracting TIP4P info from pair style
  G vector (1/distance) = 0.21319
  grid = 15 15 32
  stencil order = 5
  estimated absolute RMS force accuracy = 0.0329186
  estimated relative force accuracy = 9.91333e-05
  3d grid and FFT values/proc = 6253 2048
Step Temp E_pair E_mol TotEng Press
15000     300.3584   -15767.327            0   -13284.629    148.32751
Loop time of 137.409 on 4 procs for 5000 steps with 7751 atoms
